#n B3LYP/6-31G(d) opt

 proton optimization

0 1
C	-1	-3.45244	0.7122	0.1123	
C	-1	-3.1469	0.05114	1.31772	
C	-1	-2.85267	-1.3079	1.33429	
C	-1	-2.85071	-2.06469	0.14635	
C	-1	-1.75056	-3.06035	-0.02894	
C	-1	-1.02527	-3.58741	1.06151	
C	-1	0.35993	-3.72382	0.99975	
C	-1	1.07879	-3.34145	-0.15495	
C	-1	0.306	-3.21471	-1.32712	
C	-1	-1.07539	-3.07266	-1.26518	
C	-1	-3.53049	-1.48427	-0.94707	
C	-1	-3.82485	-0.12194	-0.96416	
H	-1	-2.91589	0.62997	2.2065	
H	-1	-2.40899	-1.71703	2.23633	
H	-1	-1.51811	-3.74847	2.01695	
H	-1	0.88906	-3.98455	1.91221	
H	-1	0.78625	-3.01277	-2.27863	
H	-1	-1.59147	-2.7566	-2.1663	
H	-1	-3.69724	-2.06154	-1.85305	
H	-1	-4.20886	0.31483	-1.88282	
H	-3.40708	1.73922	0.02177	
H	2.09594	-3.16754	-0.14124	

